dss/13Bus_tests/IEEE13BARRAS_Power_elem_kVA.txt

CIRCUIT ELEMENT POWER FLOW

(Power Flow into element from indicated Bus)

Power Delivery Elements

  Bus     Phase     kW     +j   kvar         kVA         PF

ELEMENT = "Vsource.SOURCE"
SOURCEBUS     1     -1443.6 +j   -947.8     1726.9       0.8359
SOURCEBUS     2     -1687.4 +j   -744.5     1844.4       0.9149
SOURCEBUS     3     -1741.5 +j  -1057.3     2037.3       0.8548
   TERMINAL TOTAL . -4872.5 +j  -2749.6     5594.7       0.8709
SOURCEBUS     0         0.0 +j      0.0        0.0       1.0000
SOURCEBUS     0         0.0 +j      0.0        0.0       1.0000
SOURCEBUS     0         0.0 +j      0.0        0.0       1.0000
   TERMINAL TOTAL .     0.0 +j      0.0        0.0       1.0000

ELEMENT = "Line.650632"
REG           1      1693.0 +j   1032.9     1983.3       0.8537
REG           2      1392.7 +j    688.8     1553.8       0.8964
REG           3      1786.6 +j   1027.2     2060.9       0.8669
   TERMINAL TOTAL .  4872.4 +j   2748.9     5594.4       0.8709
632           1     -1649.3 +j   -888.4     1873.3       0.8804
632           2     -1393.9 +j   -615.5     1523.8       0.9148
632           3     -1714.6 +j   -875.9     1925.4       0.8905
   TERMINAL TOTAL . -4757.8 +j  -2379.8     5319.8       0.8944

ELEMENT = "Line.632670"
632           1      1479.8 +j    768.4     1667.4       0.8875
632           2       922.4 +j    385.5      999.7       0.9227
632           3      1507.3 +j    638.5     1637.0       0.9208
   TERMINAL TOTAL .  3909.5 +j   1792.4     4300.8       0.9090
670           1     -1471.4 +j   -727.0     1641.2       0.8965
670           2      -924.9 +j   -377.8      999.1       0.9257
670           3     -1486.4 +j   -602.3     1603.8       0.9268
   TERMINAL TOTAL . -3882.7 +j  -1707.1     4241.4       0.9154

ELEMENT = "Line.670671"
670           1      1453.8 +j    716.6     1620.8       0.8970
670           2       856.2 +j    338.3      920.6       0.9301
670           3      1364.7 +j    531.6     1464.6       0.9318
   TERMINAL TOTAL .  3674.7 +j   1586.4     4002.6       0.9181
671           1     -1435.1 +j   -633.7     1568.8       0.9148
671           2      -862.8 +j   -324.9      921.9       0.9358
671           3     -1328.6 +j   -474.5     1410.8       0.9418
   TERMINAL TOTAL . -3626.5 +j  -1433.0     3899.4       0.9300

ELEMENT = "Line.671680"
671           1        -0.0 +j     -0.0        0.0       0.1063
671           2         0.0 +j     -0.0        0.0      -0.1487
671           3        -0.0 +j     -0.0        0.0       0.0604
   TERMINAL TOTAL .     0.0 +j     -0.0        0.0      -0.0000
680           1         0.0 +j     -0.0        0.0      -0.6205
680           2         0.0 +j      0.0        0.0       0.5575
680           3        -0.0 +j     -0.0        0.0       0.3482
   TERMINAL TOTAL .    -0.0 +j     -0.0        0.0       0.0743

ELEMENT = "Line.632633"
632           1       169.5 +j    120.0      207.7       0.8163
632           2       126.5 +j     96.7      159.3       0.7945
632           3       126.8 +j     96.9      159.6       0.7946
   TERMINAL TOTAL .   422.9 +j    313.6      526.5       0.8032
633           1      -169.1 +j   -119.4      207.1       0.8169
633           2      -126.4 +j    -96.4      159.0       0.7949
633           3      -126.5 +j    -96.6      159.2       0.7946
   TERMINAL TOTAL .  -422.0 +j   -312.5      525.1       0.8036

ELEMENT = "Line.632645"
632           3        80.5 +j    140.4      161.9       0.4974
632           2       345.0 +j    133.3      369.8       0.9328
   TERMINAL TOTAL .   425.5 +j    273.7      505.9       0.8410
645           3       -80.3 +j   -140.2      161.6       0.4970
645           2      -342.2 +j   -130.9      366.4       0.9340
   TERMINAL TOTAL .  -422.5 +j   -271.1      502.0       0.8416

ELEMENT = "Line.645646"
645           3        80.3 +j    140.2      161.6       0.4970
645           2       165.4 +j      0.9      165.4       1.0000
   TERMINAL TOTAL .   245.7 +j    141.1      283.4       0.8671
646           3       -80.0 +j   -140.0      161.2       0.4962
646           2      -165.1 +j     -0.7      165.1       1.0000
   TERMINAL TOTAL .  -245.1 +j   -140.7      282.6       0.8673

ELEMENT = "Line.692675"
692           1       508.0 +j     15.6      508.2       0.9995
692           2        71.0 +j   -153.0      168.7      -0.4211
692           3       299.8 +j     39.7      302.4       0.9913
   TERMINAL TOTAL .   878.8 +j    -97.7      884.2      -0.9939
675           1      -504.3 +j    -13.2      504.5       0.9997
675           2       -70.7 +j    153.5      169.0      -0.4185
675           3      -299.1 +j    -39.8      301.7       0.9912
   TERMINAL TOTAL .  -874.1 +j    100.5      879.9      -0.9935

ELEMENT = "Line.671684"
671           1       123.9 +j     83.0      149.1       0.8308
671           3       166.6 +j    -10.4      167.0      -0.9981
   TERMINAL TOTAL .   290.5 +j     72.6      299.4       0.9702
684           1      -123.6 +j    -82.8      148.8       0.8310
684           3      -166.2 +j     10.7      166.6      -0.9979
   TERMINAL TOTAL .  -289.9 +j    -72.1      298.7       0.9705

ELEMENT = "Line.684611"
684           3       166.2 +j    -10.7      166.6      -0.9979
   TERMINAL TOTAL .   166.2 +j    -10.7      166.6      -0.9979
611           3      -165.8 +j     11.1      166.2      -0.9978
   TERMINAL TOTAL .  -165.8 +j     11.1      166.2      -0.9978

ELEMENT = "Line.684652"
684           1       123.6 +j     82.8      148.8       0.8310
   TERMINAL TOTAL .   123.6 +j     82.8      148.8       0.8310
652           1      -122.8 +j    -82.5      148.0       0.8300
   TERMINAL TOTAL .  -122.8 +j    -82.5      148.0       0.8300

ELEMENT = "Capacitor.CAP1"
675           1         0.0 +j   -184.4      184.4       1.0000
675           2         0.0 +j   -215.9      215.9       1.0000
675           3        -0.0 +j   -178.8      178.8       0.0000
   TERMINAL TOTAL .    -0.0 +j   -579.1      579.1       0.0000
675           0         0.0 +j      0.0        0.0       1.0000
675           0         0.0 +j      0.0        0.0       1.0000
675           0         0.0 +j      0.0        0.0       1.0000
   TERMINAL TOTAL .     0.0 +j      0.0        0.0       1.0000

ELEMENT = "Capacitor.CAP2"
611           3         0.0 +j    -89.1       89.1       1.0000
   TERMINAL TOTAL .     0.0 +j    -89.1       89.1       1.0000
611           0         0.0 +j      0.0        0.0       1.0000
   TERMINAL TOTAL .     0.0 +j      0.0        0.0       1.0000

ELEMENT = "Transformer.SUBESTACAO"
SOURCEBUS     1      1443.6 +j    947.8     1726.9       0.8359
SOURCEBUS     2      1687.4 +j    744.5     1844.4       0.9149
SOURCEBUS     3      1741.5 +j   1057.3     2037.3       0.8548
SOURCEBUS     0         0.0 +j      0.0        0.0       1.0000
   TERMINAL TOTAL .  4872.5 +j   2749.6     5594.7       0.8709
650           1     -1693.1 +j  -1033.1     1983.4       0.8536
650           2     -1392.8 +j   -689.0     1553.9       0.8963
650           3     -1786.6 +j  -1027.4     2061.0       0.8669
650           0         0.0 +j      0.0        0.0       1.0000
   TERMINAL TOTAL . -4872.5 +j  -2749.6     5594.7       0.8709

ELEMENT = "Transformer.XFM1"
633           1       169.1 +j    119.4      207.1       0.8169
633           2       126.4 +j     96.4      159.0       0.7949
633           3       126.5 +j     96.6      159.2       0.7946
633           0         0.0 +j      0.0        0.0       1.0000
   TERMINAL TOTAL .   422.0 +j    312.5      525.1       0.8036
634           1      -166.4 +j   -114.4      201.9       0.8240
634           2      -124.8 +j    -93.6      156.0       0.8000
634           3      -124.8 +j    -93.6      156.0       0.8000
634           0         0.0 +j      0.0        0.0       1.0000
   TERMINAL TOTAL .  -416.0 +j   -301.6      513.8       0.8096

ELEMENT = "Transformer.REGFASEA"
650           1      1693.1 +j   1033.1     1983.4       0.8536
650           0         0.0 +j      0.0        0.0       1.0000
   TERMINAL TOTAL .  1693.1 +j   1033.1     1983.4       0.8536
REG           1     -1693.0 +j  -1032.9     1983.3       0.8537
REG           0         0.0 +j      0.0        0.0       1.0000
   TERMINAL TOTAL . -1693.0 +j  -1032.9     1983.3       0.8537

ELEMENT = "Transformer.REGFASEB"
650           2      1392.8 +j    689.0     1553.9       0.8963
650           0         0.0 +j      0.0        0.0       1.0000
   TERMINAL TOTAL .  1392.8 +j    689.0     1553.9       0.8963
REG           2     -1392.7 +j   -688.8     1553.8       0.8964
REG           0         0.0 +j      0.0        0.0       1.0000
   TERMINAL TOTAL . -1392.7 +j   -688.8     1553.8       0.8964

ELEMENT = "Transformer.REGFASEC"
650           3      1786.6 +j   1027.4     2061.0       0.8669
650           0         0.0 +j      0.0        0.0       1.0000
   TERMINAL TOTAL .  1786.6 +j   1027.4     2061.0       0.8669
REG           3     -1786.6 +j  -1027.2     2060.9       0.8669
REG           0         0.0 +j      0.0        0.0       1.0000
   TERMINAL TOTAL . -1786.6 +j  -1027.2     2060.9       0.8669

ELEMENT = "Line.671692"
671           1       551.8 +j    140.2      569.3       0.9692
671           2        71.0 +j   -153.0      168.7      -0.4212
671           3       426.4 +j     66.5      431.5       0.9881
   TERMINAL TOTAL .  1049.2 +j     53.8     1050.6       0.9987
692           1      -551.7 +j   -140.2      569.3       0.9692
692           2       -71.0 +j    153.0      168.7      -0.4211
692           3      -426.4 +j    -66.5      431.5       0.9881
   TERMINAL TOTAL . -1049.1 +j    -53.7     1050.5       0.9987

= = = = = = = = = = = = = = = = = = =  = = = = = = = = = = =  = =

Power Conversion Elements

  Bus     Phase     kW   +j  kvar         kVA         PF

ELEMENT = "Load.671"
671           1     759.5 +j  410.5      863.3       0.8797
671           2     791.8 +j  477.9      924.8       0.8561
671           3     735.6 +j  418.4      846.2       0.8693
  TERMINAL TOTAL  .  2286.9 +j   1306.7     2633.9       0.8683

ELEMENT = "Load.634A"
634           1     166.4 +j  114.4      201.9       0.8241
634           0       0.0 +j    0.0        0.0       1.0000
  TERMINAL TOTAL  .   166.4 +j    114.4      201.9       0.8241

ELEMENT = "Load.634B"
634           2     124.8 +j   93.6      156.0       0.8000
634           0       0.0 +j    0.0        0.0       1.0000
  TERMINAL TOTAL  .   124.8 +j     93.6      156.0       0.8000

ELEMENT = "Load.634C"
634           3     124.8 +j   93.6      156.0       0.8000
634           0       0.0 +j    0.0        0.0       1.0000
  TERMINAL TOTAL  .   124.8 +j     93.6      156.0       0.8000

ELEMENT = "Load.645"
645           2     176.8 +j  130.0      219.5       0.8057
645           0       0.0 +j    0.0        0.0       1.0000
  TERMINAL TOTAL  .   176.8 +j    130.0      219.5       0.8057

ELEMENT = "Load.646"
646           2     165.1 +j    0.7      165.1       1.0000
646           3      80.0 +j  140.0      161.2       0.4962
  TERMINAL TOTAL  .   245.1 +j    140.7      282.6       0.8673

ELEMENT = "Load.692"
692           3     126.6 +j   26.7      129.4       0.9784
692           1      43.8 +j  124.6      132.1       0.3314
  TERMINAL TOTAL  .   170.4 +j    151.3      227.9       0.7477

ELEMENT = "Load.675A"
675           1     504.4 +j  197.6      541.7       0.9311
675           0       0.0 +j    0.0        0.0       1.0000
  TERMINAL TOTAL  .   504.4 +j    197.6      541.7       0.9311

ELEMENT = "Load.675B"
675           2      70.7 +j   62.4       94.3       0.7499
675           0       0.0 +j    0.0        0.0       1.0000
  TERMINAL TOTAL  .    70.7 +j     62.4       94.3       0.7499

ELEMENT = "Load.675C"
675           3     299.1 +j  218.6      370.5       0.8073
675           0       0.0 +j    0.0        0.0       1.0000
  TERMINAL TOTAL  .   299.1 +j    218.6      370.5       0.8073

ELEMENT = "Load.611"
611           3     165.8 +j   78.0      183.3       0.9048
611           0       0.0 +j    0.0        0.0       1.0000
  TERMINAL TOTAL  .   165.8 +j     78.0      183.3       0.9048

ELEMENT = "Load.652"
652           1     122.8 +j   82.5      148.0       0.8301
652           0       0.0 +j    0.0        0.0       1.0000
  TERMINAL TOTAL  .   122.8 +j     82.5      148.0       0.8301

ELEMENT = "Load.670A"
670           1      17.7 +j   10.4       20.5       0.8619
670           0       0.0 +j    0.0        0.0       1.0000
  TERMINAL TOTAL  .    17.7 +j     10.4       20.5       0.8619

ELEMENT = "Load.670B"
670           2      68.6 +j   39.5       79.2       0.8666
670           0       0.0 +j    0.0        0.0       1.0000
  TERMINAL TOTAL  .    68.6 +j     39.5       79.2       0.8666

ELEMENT = "Load.670C"
670           3     121.7 +j   70.7      140.7       0.8646
670           0       0.0 +j    0.0        0.0       1.0000
  TERMINAL TOTAL  .   121.7 +j     70.7      140.7       0.8646


Total Circuit Losses =  206.6 +j  627.7
